* corner.sp 
* Step response of unloaded inverter across process corners
*----------------------------------------------------------------------
* Parameters and models
*----------------------------------------------------------------------
.option scale=25n
.param SUP=1.0 * Must set before calling .lib
.lib '/mnt/vol_NFS_rh003/Est_VLSI_I_2024/Sulecio_Hidalgo_I_2024_vlsi/tarea1/Hspice/lp5mos/xt018.lib' tm
.lib '/mnt/vol_NFS_rh003/Est_VLSI_I_2024/Sulecio_Hidalgo_I_2024_vlsi/tarea1/Hspice/lp5mos/param.lib' 3s
.lib '/mnt/vol_NFS_rh003/Est_VLSI_I_2024/Sulecio_Hidalgo_I_2024_vlsi/tarea1/Hspice/lp5mos/config.lib' 
.option post
*----------------------------------------------------------------------
* Simulation netlist
*----------------------------------------------------------------------
Vdd vdd gnd 'SUPPLY'
Vin a gnd PULSE 0 'SUPPLY' 25ps 0ps 0ps 35ps 80ps
xm0 y a gnd gnd ne W=4 L=2
+ as=-1 ad=-1 ps=-1 + pd=-1 nrs=-1 nrd=-1 m='(1*1)' par1='(1*1)' xf_subext=0
xm1 y a vdd vdd pe W=8 L=2
+ as=-1 ad=-1 ps=-1 + pd=-1 nrs=-1 nrd=-1 m='(1*1)' par1='(1*1)' xf_subext=0
*----------------------------------------------------------------------
* Stimulus
*----------------------------------------------------------------------
.tran 0.1ps 80ps
.alter
.lib '../models/ibm065/opconditions.lib' FF
.alter
.lib '../models/ibm065/opconditions.lib' SS
.end
